powerflow/Codes/PF_Formulation/resultados_csv/18/9bus_transformer_fields/ramos.csv
caso,script,branch_id,f_bus,t_bus,pf_pu,qf_pu,pt_pu,qt_pu,loss_p_pu,loss_q_pu
9bus_transformer_fields.pwf,18,1,7,8,0.49739087366076723,0.03054480054070438,-0.49530102126190617,-0.16828273336419883,0.0020898523988610584,-0.13773793282349445
9bus_transformer_fields.pwf,18,2,4,5,0.8600372325155103,0.2181297391515641,-0.852335953937754,-0.33851290240854215,0.007701278577756376,-0.12038316325697804
9bus_transformer_fields.pwf,18,3,4,6,0.5672872156439487,0.027964783875301102,-0.5620578763204963,-0.168663706982359,0.0052293393234523755,-0.1406989231070579
9bus_transformer_fields.pwf,18,4,6,9,-0.3379421236794926,-0.13133629301736846,0.3423002390309149,-0.22773702916390118,0.004358115351422276,-0.35907332218126964
9bus_transformer_fields.pwf,18,5,7,5,0.40260912633922785,-0.1315870081434012,-0.39766404606224215,-0.16148709759100208,0.004945080276985703,-0.2930741057344033
9bus_transformer_fields.pwf,18,6,8,9,-0.5046989787380778,-0.18171726663592064,0.5076997609690643,-0.011590860944207186,0.003000782230986543,-0.19330812758012783
9bus_transformer_fields.pwf,18,7,1,4,1.4273244481594598,0.3571152514104554,-1.4273244481594598,-0.24609452302687274,0.0,0.11102072838358268
9bus_transformer_fields.pwf,18,8,2,7,0.8999999999999961,-0.05243597657439736,-0.8999999999999961,0.10104220760269556,0.0,0.0486062310282982
9bus_transformer_fields.pwf,18,9,3,9,0.849999999999968,-0.19627189329054318,-0.849999999999968,0.23932789010811462,0.0,0.04305599681757144
